Version 4
SHEET 1 1348 680
WIRE -528 -752 -704 -752
WIRE -160 -752 -528 -752
WIRE 768 -752 -160 -752
WIRE 912 -752 768 -752
WIRE 1120 -752 912 -752
WIRE -704 -544 -704 -752
WIRE -528 -528 -528 -752
WIRE -160 -432 -160 -752
WIRE -96 -432 -160 -432
WIRE -96 -384 -96 -432
WIRE -128 -368 -272 -368
WIRE -112 -368 -128 -368
WIRE -96 -368 -96 -384
WIRE -704 -352 -704 -464
WIRE -656 -352 -704 -352
WIRE -528 -352 -528 -464
WIRE -528 -352 -576 -352
WIRE -176 -352 -528 -352
WIRE 48 -352 -64 -352
WIRE 112 -352 48 -352
WIRE -176 -336 -176 -352
WIRE -128 -336 -176 -336
WIRE 112 -320 112 -352
WIRE 160 -320 112 -320
WIRE 336 -304 224 -304
WIRE 416 -304 336 -304
WIRE 432 -304 416 -304
WIRE 512 -304 480 -304
WIRE 160 -288 112 -288
WIRE -864 -224 -1152 -224
WIRE -800 -224 -816 -224
WIRE -704 -224 -704 -352
WIRE -704 -224 -800 -224
WIRE 112 -224 112 -288
WIRE 336 -224 336 -304
WIRE 336 -224 112 -224
WIRE 768 -208 768 -752
WIRE 912 -208 912 -752
WIRE 1120 -208 1120 -752
WIRE -272 -192 -272 -368
WIRE -128 -192 -272 -192
WIRE 48 -192 48 -352
WIRE 48 -192 -48 -192
WIRE -528 -144 -528 -352
WIRE -704 -128 -704 -224
WIRE 1120 -128 1120 -144
WIRE -1152 -96 -1152 -224
WIRE -272 -96 -272 -192
WIRE -272 64 -272 -16
WIRE -1152 192 -1152 32
WIRE -704 192 -704 -48
WIRE -704 192 -1152 192
WIRE -528 192 -528 -80
WIRE -528 192 -704 192
WIRE -272 192 -272 128
WIRE -272 192 -528 192
WIRE 528 192 528 -176
WIRE 528 192 -272 192
WIRE 768 192 768 -144
WIRE 768 192 528 192
WIRE 912 192 912 -144
WIRE 912 192 768 192
WIRE 1120 192 1120 -128
WIRE 1120 192 912 192
WIRE -272 208 -272 192
WIRE 1120 240 1120 192
FLAG -272 208 0
FLAG 1120 240 0
FLAG -1152 -96 +
IOPIN -1152 -96 In
FLAG -1152 32 -
IOPIN -1152 32 Out
DATAFLAG 1120 208 ""
DATAFLAG 768 -416 ""
DATAFLAG 528 -64 ""
DATAFLAG -160 -336 ""
DATAFLAG 128 -320 ""
DATAFLAG 384 -304 ""
DATAFLAG -528 -224 ""
DATAFLAG -1024 -224 ""
DATAFLAG -944 192 ""
DATAFLAG -704 112 ""
DATAFLAG -704 -160 ""
DATAFLAG -704 -304 ""
DATAFLAG -704 -624 ""
DATAFLAG -528 -656 ""
DATAFLAG 48 -752 ""
DATAFLAG 912 -592 ""
DATAFLAG -176 -192 ""
DATAFLAG -272 -128 ""
DATAFLAG -560 -352 ""
DATAFLAG -160 -656 ""
BUSTAP 528 -176 544 -176
BUSTAP 512 -304 528 -304
SYMBOL res -720 -560 R0
SYMATTR InstName R1
SYMATTR Value 100kR
SYMBOL res -720 -144 R0
SYMATTR InstName R2
SYMATTR Value 100kR
SYMBOL res -560 -368 R90
WINDOW 0 0 56 VBottom 2
WINDOW 3 32 56 VTop 2
SYMATTR InstName R3
SYMATTR Value 1mR
SYMBOL res -288 -112 R0
SYMATTR InstName R4
SYMATTR Value 1kR
SYMBOL res -32 -208 R90
WINDOW 0 0 56 VBottom 2
WINDOW 3 32 56 VTop 2
SYMATTR InstName R5
SYMATTR Value 1mR
SYMBOL cap -800 -240 R90
WINDOW 0 0 32 VBottom 2
WINDOW 3 39 27 VTop 2
SYMATTR InstName C1
SYMATTR Value 100nF
SYMBOL cap -288 64 R0
SYMATTR InstName C2
SYMATTR Value 1µF
SYMBOL cap 480 -320 R90
WINDOW 0 0 32 VBottom 2
WINDOW 3 32 32 VTop 2
SYMATTR InstName C3
SYMATTR Value 220µF
SYMBOL cap 752 -208 R0
WINDOW 3 25 52 Left 2
SYMATTR Value 100nF
SYMATTR InstName C4
SYMBOL cap 896 -208 R0
SYMATTR InstName C5
SYMATTR Value 10µF
SYMBOL OpAmps\\AD8552 -96 -416 R0
SYMATTR InstName U1
SYMBOL OpAmps\\AD8552 192 -368 R0
SYMATTR InstName U2
SYMBOL Contrib\\Toshiba\\diode\\1SS294 -512 -464 R180
WINDOW 0 24 64 Left 2
WINDOW 3 24 0 Left 2
SYMATTR InstName U3
SYMBOL Contrib\\Toshiba\\diode\\1SS294 -512 -80 R180
WINDOW 0 24 64 Left 2
WINDOW 3 24 0 Left 2
SYMATTR InstName U4
SYMBOL voltage 1120 -224 R0
WINDOW 123 0 0 Left 0
WINDOW 39 0 0 Left 0
SYMATTR InstName V1
SYMATTR Value 9V
TEXT -1152 232 Left 2 !.op oct
